<?xml version="1.0" encoding="UTF-8"?>
<routes xmlns:xsi="http://www.w3.org/2001/XMLSchema-instance" xsi:noNamespaceSchemaLocation="http://sumo.dlr.de/xsd/routes_file.xsd">
  <vType accel="1.5" decel="1.2" id="Car" length="5.0" minGap="2.0" carFollowModel="IDM" tau="1.2" sigma="0" maxSpeed="50.0" delta="4" emissionClass="PHEMlight/PKW_G_EU4"/>

  <route id="route0" edges="way1 way2" />

  <vehicle depart="57" id="veh0" route="route0" type="Car" departSpeed="13.89"/>
  
</routes>
